Version 4
SHEET 1 2296 1972
WIRE 912 -112 848 -112
WIRE 1072 -112 976 -112
WIRE 512 -16 -384 -16
WIRE 848 -16 848 -112
WIRE 848 -16 560 -16
WIRE 1072 16 1072 -112
WIRE 1120 16 1072 16
WIRE 1392 16 1120 16
WIRE 1984 16 1392 16
WIRE 1120 48 1120 16
WIRE 592 64 560 64
WIRE -384 96 -384 -16
WIRE 1392 128 1392 16
WIRE 1120 160 1120 128
WIRE 512 240 512 64
WIRE 512 240 368 240
WIRE 1120 288 1120 224
WIRE 1392 304 1392 208
WIRE 592 320 592 64
WIRE -384 368 -384 176
WIRE -336 368 -384 368
WIRE -336 400 -336 368
WIRE 576 544 208 544
WIRE 576 608 576 544
WIRE 576 608 496 608
WIRE 368 624 368 240
WIRE 432 624 368 624
WIRE 576 624 576 608
WIRE 560 640 496 640
WIRE -32 656 -320 656
WIRE -320 752 -320 656
WIRE 480 848 320 848
WIRE 560 848 560 640
WIRE 560 848 480 848
WIRE 480 944 480 848
WIRE -32 960 -32 656
WIRE 208 1008 208 544
WIRE 208 1008 112 1008
WIRE 1584 1008 1504 1008
WIRE -176 1040 -368 1040
WIRE 1584 1040 1584 1008
WIRE 320 1072 320 848
WIRE 320 1072 112 1072
WIRE 704 1104 592 1104
WIRE 720 1104 704 1104
WIRE 1152 1104 784 1104
WIRE 1504 1104 1504 1008
WIRE -368 1120 -368 1040
WIRE -368 1120 -464 1120
WIRE 176 1136 112 1136
WIRE 176 1152 176 1136
WIRE 528 1152 528 1104
WIRE 528 1152 176 1152
WIRE -176 1168 -240 1168
WIRE -368 1200 -464 1200
WIRE -240 1200 -240 1168
WIRE -240 1200 -368 1200
WIRE 144 1200 112 1200
WIRE 528 1264 528 1152
WIRE 544 1264 528 1264
WIRE 1152 1264 1152 1104
WIRE 1152 1264 608 1264
WIRE 1504 1280 1504 1184
WIRE 1504 1280 1408 1280
WIRE 1568 1280 1504 1280
WIRE 1696 1280 1648 1280
WIRE -368 1312 -368 1200
WIRE -352 1312 -368 1312
WIRE -32 1312 -32 1248
WIRE -352 1344 -352 1312
WIRE -352 1344 -384 1344
WIRE 144 1424 144 1200
WIRE 1152 1424 1152 1264
WIRE 1152 1424 144 1424
WIRE 1408 1424 1408 1280
WIRE 1408 1424 1152 1424
WIRE 1488 1424 1408 1424
WIRE 1584 1424 1568 1424
WIRE 1696 1424 1696 1280
WIRE 1696 1424 1648 1424
WIRE 1984 1424 1984 16
WIRE 1984 1424 1696 1424
FLAG 1120 288 0
FLAG 592 320 0
FLAG -336 400 0
FLAG 480 944 0
FLAG 1392 304 0
FLAG -320 832 0
FLAG -32 1312 0
FLAG -384 1408 0
FLAG 1584 1040 0
DATAFLAG -176 -16 ""
SYMBOL voltage -384 80 R0
WINDOW 123 0 0 Left 0
WINDOW 39 0 0 Left 0
SYMATTR InstName V1
SYMATTR Value PULSE(48 24 0 1p 1p 0.1 0.2)
SYMBOL diode 912 -96 R270
WINDOW 0 32 32 VTop 2
WINDOW 3 0 32 VBottom 2
SYMATTR InstName D2
SYMBOL cap 1104 160 R0
SYMATTR InstName C2
SYMATTR Value 470µ
SYMATTR SpiceLine Rser=37m
SYMBOL res 1584 1408 R90
WINDOW 0 0 56 VBottom 2
WINDOW 3 32 56 VTop 2
SYMATTR InstName R7
SYMATTR Value 30
SYMBOL ind2 576 -32 M0
WINDOW 0 -37 38 Left 2
WINDOW 3 -48 74 Left 2
SYMATTR InstName L2
SYMATTR Value 34.22µ
SYMATTR Type ind
SYMBOL ind2 496 80 M180
WINDOW 0 -37 72 Left 2
WINDOW 3 -63 38 Left 2
SYMATTR InstName L1
SYMATTR Value 77.138µ
SYMATTR Type ind
SYMBOL res 1376 112 R0
SYMATTR InstName R1
SYMATTR Value 3.75
SYMBOL PowerProducts\\LT1246 -32 1104 R0
SYMATTR InstName U1
SYMBOL voltage -320 736 R0
WINDOW 123 0 0 Left 0
WINDOW 39 0 0 Left 0
SYMATTR InstName V2
SYMATTR Value 25
SYMBOL res -480 1104 R0
SYMATTR InstName R4
SYMATTR Value 2000
SYMBOL cap -400 1344 R0
SYMATTR InstName C1
SYMATTR Value 1.88e-8
SYMBOL cap 1648 1408 R90
WINDOW 0 0 32 VBottom 2
WINDOW 3 32 32 VTop 2
SYMATTR InstName C3
SYMATTR Value 100n
SYMBOL res 1664 1264 R90
WINDOW 0 0 56 VBottom 2
WINDOW 3 32 56 VTop 2
SYMATTR InstName R2
SYMATTR Value 1000
SYMBOL cap 592 1088 R90
WINDOW 0 0 32 VBottom 2
WINDOW 3 32 32 VTop 2
SYMATTR InstName C4
SYMATTR Value 470n
SYMBOL cap 608 1248 R90
WINDOW 0 0 32 VBottom 2
WINDOW 3 32 32 VTop 2
SYMATTR InstName C5
SYMATTR Value 10n
SYMBOL res 800 1088 R90
WINDOW 0 0 56 VBottom 2
WINDOW 3 32 56 VTop 2
SYMATTR InstName R3
SYMATTR Value 500
SYMBOL res 1488 1088 R0
SYMATTR InstName R5
SYMATTR Value 200
SYMBOL res 1104 32 R0
SYMATTR InstName R6
SYMATTR Value 0.015
SYMBOL AutoGenerated\\irf540n 464 624 R0
SYMATTR InstName U2
TEXT 488 -48 Left 2 !K L1 L2 1
TEXT -1432 1472 Left 2 !.tran 0.2
TEXT -1376 456 Left 2 !.model D D(Ron=0.01333 Roff=1G Vfwd=0.39 Vrev=80 Ilimit=30)
