Version 4
SHEET 1 1344 680
WIRE -96 -320 -160 -320
WIRE 192 -320 32 -320
WIRE -160 -208 -160 -320
WIRE 0 -208 -160 -208
WIRE 704 -144 528 -144
WIRE -288 -128 -448 -128
WIRE 0 -128 0 -208
WIRE 0 -128 -176 -128
WIRE 144 -128 64 -128
WIRE 240 -128 144 -128
WIRE 528 -128 528 -144
WIRE 528 -128 240 -128
WIRE 144 -112 144 -128
WIRE -96 -96 -224 -96
WIRE -96 -64 -96 -96
WIRE 0 -48 0 -128
WIRE 0 -48 -32 -48
WIRE 240 -48 240 -128
WIRE -448 -32 -448 -128
WIRE -176 -32 -176 -48
WIRE 64 -32 -176 -32
WIRE -288 -16 -288 -48
WIRE -224 -16 -224 -96
WIRE -224 -16 -288 -16
WIRE 0 -16 -32 -16
WIRE 704 -16 704 -144
WIRE 704 -16 544 -16
WIRE -160 0 -160 -16
WIRE 144 0 144 -32
WIRE -192 32 -208 32
WIRE 704 48 704 -16
WIRE -192 80 -192 32
WIRE -160 80 -192 80
WIRE 544 96 544 48
WIRE -448 128 -448 48
WIRE -96 128 -96 112
WIRE -96 128 -448 128
WIRE 0 128 -96 128
WIRE 64 128 64 -32
WIRE 144 128 144 64
WIRE 144 128 64 128
WIRE 192 128 144 128
WIRE 240 128 240 32
WIRE 240 128 192 128
WIRE 288 192 224 192
WIRE 416 192 352 192
WIRE 544 208 544 176
WIRE 704 208 704 128
WIRE 704 208 544 208
WIRE 320 272 176 272
WIRE 224 288 224 192
WIRE 336 288 304 288
WIRE 416 288 416 192
WIRE 416 288 400 288
WIRE -80 320 -80 288
WIRE 112 336 -48 336
WIRE -208 352 -208 32
WIRE -112 352 -208 352
WIRE 0 368 -48 368
WIRE 320 368 320 272
WIRE 416 384 416 288
WIRE 416 384 352 384
WIRE 704 384 704 208
WIRE 704 384 416 384
WIRE 112 400 112 336
WIRE 224 400 224 288
WIRE 224 400 112 400
WIRE 288 400 224 400
WIRE -80 416 -80 384
WIRE 0 416 0 368
WIRE 448 416 352 416
WIRE 448 448 448 416
FLAG -80 496 0
FLAG 0 496 0
FLAG 0 128 0
FLAG 448 528 0
FLAG -80 288 0
FLAG 96 272 0
FLAG 320 432 0
FLAG 784 208 0
FLAG 192 128 0
SYMBOL voltage -448 -48 R0
WINDOW 123 0 0 Left 2
WINDOW 39 0 0 Left 2
WINDOW 3 -468 61 Left 2
SYMATTR Value 24
SYMATTR InstName V1
SYMBOL cap 128 0 R0
SYMATTR InstName C1
SYMATTR Value 330µ
SYMBOL res 720 144 R180
WINDOW 0 36 76 Left 2
WINDOW 3 36 40 Left 2
SYMATTR InstName R5
SYMATTR Value 1k
SYMBOL res 528 80 R0
SYMATTR InstName R6
SYMATTR Value 30
SYMBOL cap 528 -16 R0
SYMATTR InstName C2
SYMATTR Value 100n
SYMBOL res 320 272 R90
WINDOW 0 0 56 VBottom 2
WINDOW 3 32 56 VTop 2
SYMATTR InstName R7
SYMATTR Value 270
SYMBOL cap 400 272 R90
WINDOW 0 0 32 VBottom 2
WINDOW 3 32 32 VTop 2
SYMATTR InstName C3
SYMATTR Value 470n
SYMBOL cap 352 176 R90
WINDOW 0 0 32 VBottom 2
WINDOW 3 32 32 VTop 2
SYMATTR InstName C4
SYMATTR Value 10n
SYMBOL voltage -80 400 R0
WINDOW 123 0 0 Left 2
WINDOW 39 0 0 Left 2
SYMATTR InstName V3
SYMATTR Value 5
SYMBOL voltage 0 400 R0
WINDOW 123 0 0 Left 2
WINDOW 39 0 0 Left 2
SYMATTR InstName V6
SYMATTR Value PULSE(0 1.8 0 0 0.0000249 0 0.000025)
SYMBOL voltage 448 432 R0
WINDOW 123 0 0 Left 2
WINDOW 39 0 0 Left 2
SYMATTR InstName V7
SYMATTR Value 2.5
SYMBOL Opamps\\UniversalOpamp2 -80 352 R180
SYMATTR InstName U1
SYMBOL Opamps\\UniversalOpamp2 320 400 M0
SYMATTR InstName U2
SYMBOL diode 0 -112 R270
WINDOW 0 32 32 VTop 2
WINDOW 3 0 32 VBottom 2
SYMATTR InstName D1
SYMBOL res 224 -64 R0
SYMATTR InstName R3
SYMATTR Value 3.75
SYMBOL voltage 192 272 R90
WINDOW 0 -32 56 VBottom 2
WINDOW 3 32 56 VTop 2
WINDOW 123 0 0 Left 2
WINDOW 39 0 0 Left 2
SYMATTR InstName V4
SYMATTR Value 1.2
SYMBOL res 128 -128 R0
SYMATTR InstName R2
SYMATTR Value 15m
SYMBOL res 800 192 R90
WINDOW 0 0 56 VBottom 2
WINDOW 3 32 56 VTop 2
SYMATTR InstName R4
SYMATTR Value 200
SYMBOL ind2 -304 -32 M180
WINDOW 0 36 80 Left 2
WINDOW 3 36 40 Left 2
SYMATTR InstName L1
SYMATTR Value 77.138µ
SYMATTR Type ind
SYMBOL ind2 -160 -144 M0
SYMATTR InstName L2
SYMATTR Value 34.22µ
SYMATTR Type ind
SYMBOL nmos -144 0 R0
SYMATTR InstName M1
SYMATTR Value IRFH5306
SYMBOL SOAtherm-NMOS -96 48 R0
SYMATTR InstName U4
SYMATTR SpiceModel IRFH5306
SYMATTR Value2 Tambient=25
SYMBOL SOAtherm-HeatSink -16 -320 R0
SYMATTR InstName U3
SYMATTR Value Rtheta=10 Tambient=25
TEXT -480 568 Left 2 !.tran 0.05
TEXT -1008 192 Left 2 !.model D D(Ron=0.01333 Roff=1G Vfwd=0.39 Vrev=80 Ilimit=30)
TEXT -280 -160 Left 2 !K L1 L2 1
